<additional>
    <rerouter id="rerouter" edges="410827466">
        <interval begin="0" end="10000000">
            <closingReroute id="410827466"/>
        </interval>
    </rerouter>
</additional>