<additional>
    <rerouter id="rerouter" edges="-437713551#0">
        <closingReroute id="-437713551#0"/>
    </rerouter>
</additional>